Circuit: * C:\Users\vanvi\OneDrive\Documents\GitHub\SRAD-Avionics\Valve-Controller\sim\Valve Controller.asc

Direct Newton iteration for .op point succeeded.

Date: Thu Oct 17 13:50:56 2024
Total elapsed time: 0.078 seconds.

tnom = 27
temp = 27
method = modified trap
totiter = 2503
traniter = 2498
tranpoints = 1210
accept = 1179
rejected = 31
matrix size = 10
fillins = 0
solver = Normal
Avg thread counts: 3.4/5.9/5.8/3.4
Matrix Compiler1:      25 opcodes  0.1/[0.1]/0.2
Matrix Compiler2: 706 bytes object code size  0.1/0.1/[0.1]

