Circuit: * C:\Users\vanvi\OneDrive\Documents\GitHub\SRAD-Avionics\Valve Controller\sim\Valve Controller.asc

.OP point found by inspection.

Date: Thu Oct 17 12:53:08 2024
Total elapsed time: 0.215 seconds.

tnom = 27
temp = 27
method = modified trap
totiter = 2501
traniter = 2501
tranpoints = 1218
accept = 1194
rejected = 24
matrix size = 8
fillins = 0
solver = Normal
Avg thread counts: 3.4/5.8/5.8/3.4
Matrix Compiler1:      23 opcodes  0.8/[0.3]/0.3
Matrix Compiler2: 608 bytes object code size  0.2/0.3/[0.2]

