Circuit: * C:\Users\vanvi\OneDrive\Documents\GitHub\SRAD-Avionics\Pyro_Controller\sim\Simulation_Draft1.asc

Direct Newton iteration for .op point succeeded.

Date: Thu Oct 17 13:18:05 2024
Total elapsed time: 0.158 seconds.

tnom = 27
temp = 27
method = modified trap
totiter = 2959
traniter = 2954
tranpoints = 1393
accept = 1299
rejected = 94
matrix size = 11
fillins = 0
solver = Normal
Avg thread counts: 3.0/5.2/5.2/3.0
Matrix Compiler1:      28 opcodes  0.4/[0.3]/0.4
Matrix Compiler2: off  [0.2]/0.5/0.3

