Circuit: * C:\Users\marce\Documents\GitHub\SRAD-Avionics\Pyro_Controller\sim\Simulation_Draft1.asc

Direct Newton iteration for .op point succeeded.

Date: Thu Oct 17 12:43:07 2024
Total elapsed time: 0.298 seconds.

tnom = 27
temp = 27
method = modified trap
totiter = 2959
traniter = 2954
tranpoints = 1393
accept = 1299
rejected = 94
matrix size = 11
fillins = 0
solver = Normal
Avg thread counts: 1.9/2.9/2.9/1.9
Matrix Compiler1: 494 bytes object code size  0.7/0.4/[0.2]
Matrix Compiler2: 779 bytes object code size  0.4/0.3/[0.2]

