Circuit: * C:\Users\marce\Documents\GitHub\SRAD-Avionics\Pyro_Controller\sim\Simulation_Draft1.asc

WARNING: Less than two connections to node fet.  This node is used by r§load.
Direct Newton iteration for .op point succeeded.

Date: Tue Oct 15 14:46:52 2024
Total elapsed time: 0.315 seconds.

tnom = 27
temp = 27
method = modified trap
totiter = 2174
traniter = 2170
tranpoints = 1086
accept = 1076
rejected = 10
matrix size = 6
fillins = 0
solver = Normal
Avg thread counts: 2.3/3.5/3.5/2.3
Matrix Compiler1: 218 bytes object code size  0.3/0.3/[0.2]
Matrix Compiler2: 394 bytes object code size  0.2/0.4/[0.1]

